&atmos_model_nml
       blocksize = 32
       chksum_debug = .false.
       dycore_only = .false.
       ccpp_suite = '@[CCPP_SUITE]'
/

&diag_manager_nml
       prepend_date = .false.
       max_output_fields = @[MAX_OUTPUT_FIELDS]
/

&fms_io_nml
       checksum_required   = .false.
       max_files_r = 100,
       max_files_w = 100,
/

&mpp_io_nml
shuffle=1
deflate_level=1
/

&fms_nml
  clock_grain = 'ROUTINE'
       domains_stack_size = @[DOMAINS_STACK_SIZE]
       print_memory_usage = .false.
/

&fv_grid_nml
       grid_file = 'INPUT/grid_spec.nc'
/

&fv_core_nml
       layout   = @[INPES],@[JNPES]
       io_layout = 1,1
       npx      = @[NPX]
       npy      = @[NPY]
       ntiles   = 6,
       npz    = @[NPZ]
       ncnst  = 12
       psm_bc = @[PSM_BC]
       grid_type = -1
       make_nh = @[MAKE_NH]
       fv_debug = .false.
       molecular_diffusion=.true.
       range_warn = .false.
       reset_eta = .false.
       n_sponge = -1
       nudge_qv = @[NUDGE_QV]
       tau = @[TAU]
       rf_cutoff = 2.e2
       d2_bg_k1 = @[D2_BG_K1]
       d2_bg_k2 = @[D2_BG_K2]
       kord_tm = -9
       kord_mt =  9
       kord_wz =  9
       kord_tr =  9
       hydrostatic = .false.
       phys_hydrostatic = .false.
       use_hydro_pressure = .false.
       beta = 0.
       a_imp = 1.
       p_fac = 0.1
       k_split  = 2
       n_split  = 6
       nwat = 6
       na_init = @[NA_INIT]
       d_ext = 0.0
       dnats = @[DNATS]
       fv_sg_adj = @[FV_SG_ADJ]
       d2_bg = 0.
       nord =  2
       dddmp = @[DDDMP]
       d4_bg = 0.16
       vtdm4 = @[VTDM4]
       delt_max = @[DELT_MAX]
       ke_bg = 0.
       do_vort_damp = @[DO_VORT_DAMP]
       external_ic = @[EXTERNAL_IC]
       external_eta = .true.
       gfs_phil = .false.
       nggps_ic = @[NGGPS_IC]
       mountain = @[MOUNTAIN]
       ncep_ic = .false.
       d_con = @[D_CON]
       hord_mt = 5
       hord_vt = 5
       hord_tm = 5
       hord_dp = -5
       hord_tr = 8
       adjust_dry_mass = .false.
       consv_te = 0.
       do_sat_adj = @[DO_SAT_ADJ]
       consv_am = .false.
       fill = .true.
       dwind_2d = .false.
       print_freq = 6
       warm_start = @[WARM_START]
       no_dycore = .false.
       z_tracer = @[Z_TRACER]
       agrid_vel_rst = @[AGRID_VEL_RST]
       read_increment = @[READ_INCREMENT]
       res_latlon_dynamics = "fv3_increment.nc"
/

&external_ic_nml
       filtered_terrain = .true.
       levp = @[NPZP]
       gfs_dwinds = .true.
       checker_tr = .false.
       nt_checker = 0
/

&gfs_physics_nml
    fhzero       = @[FHZERO]
    ldiag3d      = @[LDIAG3D]
    qdiag3d      = @[QDIAG3D]
    print_diff_pgr= .false.
    fhcyc        = @[FHCYC]
    use_ufo      = .true.
    pre_rad      = .false.
    imp_physics  = @[IMP_PHYSICS]
    ltaerosol    = @[LTAEROSOL]
    lradar       = @[LRADAR]
    ttendlim     = @[TTENDLIM]
    sedi_semi    = @[SEDI_SEMI]
    decfl        = @[DECFL]
    do_mynnedmf  = .false.
    do_mynnsfclay = .false.
    icloud_bl    = 1
    bl_mynn_edmf = 1
    bl_mynn_tkeadvect = .true.
    bl_mynn_edmf_mom = 1
    ext_diag_thompson = @[EXT_DIAG_THOMPSON]
    pdfcld       = .false.
    fhswr        = 3600.
    fhlwr        = 3600.
    ialb         = @[IALB]
    iems         = @[IEMS]
    iaer         = @[IAER]
    icliq_sw     = @[ICLIQ_SW]
    icloud       = @[ICLOUD]
    ico2           = 2
    isubc_sw       = 2
    isubc_lw       = 2
    isol           = 2
    iovr           = @[IOVR]
    lwhtr          = .true.
    swhtr          = .true.
    cnvgwd         = .true.
    shal_cnv       = .true.
    cal_pre        = .true.
    redrag         = .true.
    dspheat        = .true.
    hybedmf        = @[HYBEDMF]
    satmedmf       = @[SATMEDMF]
    isatmedmf      = 1
    lheatstrg      = @[LHEATSTRG]
    lseaspray      = @[LSEASPRAY]
    random_clds    = @[RANDOM_CLDS]
    trans_trac     = @[TRANS_TRAC]
    cnvcld         = @[CNVCLD]
    imfshalcnv     = @[IMFSHALCNV]
    imfdeepcnv     = @[IMFDEEPCNV]
    cdmbgwd        = @[CDMBWD]
    prslrd0        = 0.
    ivegsrc        = 1
    isot           = 1
    lsoil          = 4
    lsm            = @[LSM]
    iopt_dveg      = @[IOPT_DVEG]
    iopt_crs       = @[IOPT_CRS]
    iopt_btr       = 1
    iopt_run       = 1
    iopt_sfc       = @[IOPT_SFC]
    iopt_frz       = 1
    iopt_inf       = 1
    iopt_rad       = @[IOPT_RAD]
    iopt_alb       = @[IOPT_ALB]
    iopt_snf       = 4
    iopt_tbot      = 2
    iopt_stc       = @[IOPT_STC]
    iopt_trs       = @[IOPT_TRS]
    debug          = .false.
    levr           = 89
    h2o_phys       = @[H2O_PHYS]
    nstf_name      = @[NSTF_NAME]
    nst_anl        = .true.
    psautco        = 0.0008,0.0005
    prautco        = 0.00015,0.00015
    oz_phys        = .false.
    oz_phys_2015   = @[OZ_PHYS_NEW]
    effr_in        = .true.
    ldiag_ugwp     = .false.
    do_ugwp        = .false.
    do_tofd        = @[DO_TOFD]
    gwd_opt      = @[GWD_OPT]
    do_ugwp_v0   = @[DO_UGWP_V0]
    do_ugwp_v1   = @[DO_UGWP_V1]
    do_ugwp_v0_orog_only = .false.
    do_ugwp_v0_nst_only  = @[DO_UGWP_V0_NST_ONLY]
    do_gsl_drag_ls_bl    = @[DO_GSL_DRAG_LS_BL]
    do_gsl_drag_ss       = @[DO_GSL_DRAG_SS]
    do_gsl_drag_tofd     = @[DO_GSL_DRAG_TOFD]
    do_ugwp_v1_orog_only = @[DO_UGWP_V1_OROG_ONLY]
    do_sppt        = @[DO_SPPT]
    do_shum        = @[DO_SHUM]
    do_skeb        = @[DO_SKEB]
    do_ca        = @[DO_CA]
    ca_global    = @[CA_GLOBAL]
    ca_sgs       = @[CA_SGS]
    nca          = @[NCA]
    ncells       = @[NCELLS]
    nlives       = @[NLIVES]
    nseed        = @[NSEED]
    nfracseed    = @[NFRACSEED]
    nthresh      = @[NTHRESH]
    ca_trigger   = @[CA_TRIGGER]
    nspinup      = @[NSPINUP]
    iseed_ca     = @[ISEED_CA]
    lndp_type      = @[LNDP_TYPE]
    n_var_lndp     = @[N_VAR_LNDP]
    do_wamphys     = .true.
    do_wamphys_diag= .true.
    do_wamgfs_rad  = .true.
    do_wamipe      = .false.
/
&gfdl_cloud_microphysics_nml
  sedi_transport = .true.
  do_sedi_heat = .false.
  rad_snow = .true.
  rad_graupel = .true.
  rad_rain = .true.
  const_vi = .false.
  const_vs = .false.
  const_vg = .false.
  const_vr = .false.
  vi_max = 1.
  vs_max = 2.
  vg_max = 12.
  vr_max = 12.
  qi_lim = 1.
  prog_ccn = .false.
  do_qa = .true.
  fast_sat_adj = .true.
  tau_l2v = 225.
  tau_v2l = 150.
  tau_g2v = 900.
  rthresh = 10.e-6  ! This is a key parameter for cloud water
  dw_land  = 0.16
  dw_ocean = 0.10
  ql_gen = 1.0e-3
  ql_mlt = 1.0e-3
  qi0_crt = 8.0E-5
  qs0_crt = 1.0e-3
  tau_i2s = 1000.
  c_psaci = 0.05
  c_pgacs = 0.01
  rh_inc = 0.30
  rh_inr = 0.30
  rh_ins = 0.30
  ccn_l = 300.
  ccn_o = 100.
  c_paut = 0.5
  c_cracw = 0.8
  use_ppm = .false.
  use_ccn = .true.
  mono_prof = .true.
  z_slope_liq  = .true.
  z_slope_ice  = .true.
  de_ice = .false.
  fix_negative = .true.
  icloud_f = 1
  mp_time = 150.
  reiflag = 2
/

&interpolator_nml
       interp_method = 'conserve_great_circle'
/

&namsfc
       FNGLAC   = "global_glacier.2x2.grb",
       FNMXIC   = "global_maxice.2x2.grb",
       FNTSFC   = "RTGSST.1982.2012.monthly.clim.grb",
       FNSNOC   = "global_snoclim.1.875.grb",
       FNZORC   = "igbp",
       FNALBC   = @[FNALBC]
       FNALBC2  = @[FNALBC2]
       FNAISC   = "CFSR.SEAICE.1982.2012.monthly.clim.grb",
       FNTG3C   = @[FNTG3C]
       FNVEGC   = @[FNVEGC]
       FNVETC   = @[FNVETC]
       FNSOTC   = @[FNSOTC]
       FNSMCC   = @[FNSMCC_control]
       FNMSKH   = "global_slmask.t1534.3072.1536.grb",
       FNTSFA   = "",
       FNACNA   = "",
       FNSNOA   = "",
       FNVMNC   = @[FNVMNC]
       FNVMXC   = @[FNVMXC]
       FNSLPC   = @[FNSLPC]
       FNABSC   = @[FNABSC]
       LDEBUG   =.false.,
       FSMCL(2) = 99999
       FSMCL(3) = 99999
       FSMCL(4) = 99999
       LANDICE  = .false.
       FTSFS    = 90
       FAISS    = 99999
       FSNOL    = 99999
       FSICL    = @[FSICL]
       FTSFL    = 99999,
       FAISL    = 99999,
       FVETL    = 99999,
       FSOTL    = 99999,
       FvmnL    = 99999,
       FvmxL    = 99999,
       FSLPL    = 99999,
       FABSL    = 99999,
       FSNOS    = 99999,
       FSICS    = @[FSICS]
/
&nam_stochy
  lon_s=768,
  lat_s=384,
  ntrunc=382,
  SKEBNORM=1,
  SKEB_NPASS=30,
  SKEB_VDOF=5,
  SKEB=@[SKEB],
  SKEB_TAU=2.16E4,
  SKEB_LSCALE=1000.E3,
  SKEBINT=1800,
  SHUM=@[SHUM],
  SHUM_TAU=21600,
  SHUM_LSCALE=500000,
  SHUMINT=3600,
  SPPT=@[SPPT],
  SPPT_TAU=21600,
  SPPT_LSCALE=500000,
  SPPT_LOGIT=.true.,
  SPPT_SFCLIMIT=.true.,
  SPPTINT=1800,
  ISEED_SHUM=1,
  ISEED_SKEB=2,
  ISEED_SPPT=3,
/
&nam_sfcperts
  lndp_type      = @[LNDP_TYPE]
  LNDP_TAU=21600,
  LNDP_LSCALE=500000,
  ISEED_LNDP=2010,
/

&cires_ugwp_nml
       knob_ugwp_solver  = 2
       knob_ugwp_source  = 1,1,0,0
       knob_ugwp_wvspec  = 1,25,25,25
       knob_ugwp_azdir   = 2,4,4,4
       knob_ugwp_stoch   = 0,0,0,0
       knob_ugwp_effac   = 1,1,1,1
       knob_ugwp_doaxyz  = 1
       knob_ugwp_doheat  = 1
       knob_ugwp_dokdis  = 1
       knob_ugwp_ndx4lh  = 1
       knob_ugwp_version = 0
       launch_level      = 25
/
&wamphys_nml
     JH0=1.75, JH_tanh=0.5, JH_semiann=0.5, JH_ann=0.0,
     skeddy0=140., skeddy_semiann=60., skeddy_ann=0.,
     tkeddy0=280., tkeddy_semiann=0., tkeddy_ann=0., f107_fix=120.,
     f107a_fix= 120., kp_fix= 3.0, kpa_fix=3.0, gW_fix=30.,tiros_activity_fix =7.,
     tiros_switch=0, spw_drivers= 'swpc_fst', efield_model='epot', swin_drivers='swin_wam',
     do_init_tides=.false.,do_init_swio=.true., do_init_wamtracers=.true.,
     do_init_wamion=.true., do_init_wamrad=.true.
/
&multi_gases_nml
  ri= 295.3892,  461.50, 0., 0., 0., 0., 0., 173.2247,  519.674, 259.8370 ,0.,0.,0.
  cpi=1031.1083, 1846.00, 0., 0., 0., 0., 0.,  820.2391, 1299.185, 918.0969, 0.,0.,0.
/
&wamphys_tracer_cpi
  ri= 295.3892,  461.50, 0., 0., 0., 0., 0., 173.2247,  519.674, 259.8370 ,0.,0.,0.
  cpi=1031.1083, 1846.00, 0., 0., 0., 0., 0.,  820.2391, 1299.185, 918.0969,0.,0.,0.
  ntrac_wat=6
  ntrac_nml=12
/
&molecular_diffusion_nml
  tau_visc = 1.0
  tau_cond = 1.0
  tau_diff = 1.0
  md_layers = 70
  md_tadj_layers = 0
  md_consv_te = 1.0
  md_wait_hr  = 0.0
/
